
**** 10/25/19 08:21:04 ***** PSpice 16.6.0 (October 2012) ***** ID# 0 ********

 ** Profile: "SCHEMATIC1-sweep"  [ D:\CMPE-460\LABS\Lab7\Lab7-PSpiceFiles\SCHEMATIC1\sweep.sim ] 


 ****     CIRCUIT DESCRIPTION


******************************************************************************




** Creating circuit file "sweep.cir" 
** WARNING: THIS AUTOMATICALLY GENERATED FILE MAY BE OVERWRITTEN BY SUBSEQUENT SIMULATIONS

*Libraries: 
* Profile Libraries :
* Local Libraries :
* From [PSPICE NETLIST] section of C:\Users\cnl9674\cdssetup\OrCAD_PSpice/16.6.0/PSpice.ini file:
.lib "nom.lib" 

*Analysis directives: 
.AC DEC 10 1 1M
-------------$
ERROR(ORPSIM-16103): Invalid value
.OPTIONS ADVCONV
.PROBE64 V(alias(*)) I(alias(*)) W(alias(*)) D(alias(*)) NOISE(alias(*)) 
.INC "..\SCHEMATIC1.net" 



**** INCLUDING SCHEMATIC1.net ****
* source LAB7
C_C1         0 N00105  0.159155n  TC=0,0 
R_R1         N00098 N00105  10k TC=0,0 
V_V1         N00098 0 DC 0Vdc AC 1Vac 
.PARAM  f=1hz

**** RESUMING sweep.cir ****
.END
